Version 4
SHEET 1 1208 736
WIRE -1344 -992 -1344 -1040
WIRE -464 -912 -464 -976
WIRE -352 -912 -352 -976
WIRE 160 -912 160 -976
WIRE -1664 -848 -1792 -848
WIRE -1568 -848 -1664 -848
WIRE -608 -816 -1136 -816
WIRE -48 -800 -208 -800
WIRE -1696 -784 -1792 -784
WIRE -1568 -784 -1696 -784
WIRE -720 -784 -896 -784
WIRE -608 -784 -720 -784
WIRE -976 -768 -1136 -768
WIRE -976 -736 -976 -768
WIRE -608 -736 -976 -736
WIRE -48 -736 -208 -736
WIRE -1728 -720 -1792 -720
WIRE -1568 -720 -1728 -720
WIRE -976 -720 -1136 -720
WIRE -752 -704 -896 -704
WIRE -608 -704 -752 -704
WIRE 608 -704 352 -704
WIRE -48 -672 -208 -672
WIRE -1760 -656 -1792 -656
WIRE -1568 -656 -1760 -656
WIRE -976 -656 -976 -720
WIRE -608 -656 -976 -656
WIRE 576 -640 352 -640
WIRE -784 -624 -896 -624
WIRE -608 -624 -784 -624
WIRE -48 -608 -208 -608
WIRE -608 -576 -672 -576
WIRE 544 -576 352 -576
WIRE -816 -544 -896 -544
WIRE -608 -544 -816 -544
WIRE -48 -544 -208 -544
WIRE -608 -496 -672 -496
WIRE -48 -480 -208 -480
WIRE -848 -464 -896 -464
WIRE -608 -464 -848 -464
WIRE -1344 -368 -1344 -496
WIRE -400 -336 -400 -368
WIRE 160 -336 160 -368
WIRE 544 -336 544 -576
WIRE 576 -336 576 -640
WIRE 608 -336 608 -704
WIRE -720 -208 -720 -784
WIRE 352 -208 -720 -208
WIRE -752 -176 -752 -704
WIRE 352 -176 -752 -176
WIRE -784 -144 -784 -624
WIRE 352 -144 -784 -144
WIRE 848 -144 784 -144
WIRE -816 -112 -816 -544
WIRE 352 -112 -816 -112
WIRE 848 -112 784 -112
WIRE -848 -80 -848 -464
WIRE 352 -80 -848 -80
WIRE 848 -80 784 -80
WIRE -1664 0 -1664 -848
WIRE 352 0 -1664 0
WIRE 848 16 784 16
WIRE -1696 32 -1696 -784
WIRE 352 32 -1696 32
WIRE -1728 64 -1728 -720
WIRE 352 64 -1728 64
WIRE -1760 96 -1760 -656
WIRE 352 96 -1760 96
WIRE 528 240 528 192
WIRE 608 240 608 192
FLAG -896 -784 D0
IOPIN -896 -784 In
FLAG -896 -704 D1
IOPIN -896 -704 In
FLAG -896 -624 D2
IOPIN -896 -624 In
FLAG -896 -544 D3
IOPIN -896 -544 In
FLAG -896 -464 D4
IOPIN -896 -464 In
FLAG -352 -976 vdd
IOPIN -352 -976 In
FLAG -400 -336 vss
IOPIN -400 -336 In
FLAG -464 -976 0
FLAG 160 -976 vdd
IOPIN 160 -976 In
FLAG 160 -336 vss
IOPIN 160 -336 In
FLAG -672 -496 0
FLAG -1344 -1040 vdd
IOPIN -1344 -1040 In
FLAG 528 240 vdd
IOPIN 528 240 In
FLAG -1344 -368 vss
IOPIN -1344 -368 In
FLAG 608 240 vss
IOPIN 608 240 In
FLAG 848 -144 W0
IOPIN 848 -144 Out
FLAG 848 -112 W1
IOPIN 848 -112 Out
FLAG 848 -80 W2
IOPIN 848 -80 Out
FLAG 848 16 E
IOPIN 848 16 Out
FLAG -1792 -848 M0
IOPIN -1792 -848 In
FLAG -1792 -784 M1
IOPIN -1792 -784 In
FLAG -1792 -720 M2
IOPIN -1792 -720 In
FLAG -1792 -656 M3
IOPIN -1792 -656 In
FLAG -672 -576 0
SYMBOL five_bit_adder -400 -656 R0
SYMATTR InstName X1
SYMBOL mod_seven 160 -656 R0
SYMATTR InstName X2
SYMBOL Error_Analyzer 576 -48 R0
SYMATTR InstName X3
SYMBOL month_key -1344 -736 R0
SYMATTR InstName X4
