Version 4
SHEET 1 1208 736
WIRE -928 -1152 -1280 -1152
WIRE -496 -1152 -928 -1152
WIRE -64 -1152 -496 -1152
WIRE 368 -1152 -64 -1152
WIRE 800 -1152 368 -1152
WIRE -1216 -1104 -1232 -1104
WIRE -784 -1104 -1216 -1104
WIRE -352 -1104 -784 -1104
WIRE 80 -1104 -352 -1104
WIRE 512 -1104 80 -1104
WIRE -848 -944 -1136 -944
WIRE -416 -944 -704 -944
WIRE 16 -944 -272 -944
WIRE 448 -944 160 -944
WIRE -1136 -912 -1136 -944
WIRE -1072 -912 -1072 -992
WIRE -1008 -912 -1008 -992
WIRE -704 -912 -704 -944
WIRE -640 -912 -640 -992
WIRE -576 -912 -576 -992
WIRE -272 -912 -272 -944
WIRE -208 -912 -208 -992
WIRE -144 -912 -144 -992
WIRE 160 -912 160 -944
WIRE 224 -912 224 -992
WIRE 288 -912 288 -992
WIRE 592 -912 592 -992
WIRE 656 -912 656 -992
WIRE 720 -912 720 -992
WIRE -1216 -784 -1216 -1104
WIRE -928 -784 -928 -1152
WIRE -784 -784 -784 -1104
WIRE -496 -784 -496 -1152
WIRE -352 -784 -352 -1104
WIRE -64 -784 -64 -1152
WIRE 80 -784 80 -1104
WIRE 368 -784 368 -1152
WIRE 512 -784 512 -1104
WIRE 800 -784 800 -1152
WIRE -848 -656 -848 -944
WIRE -672 -656 -848 -656
WIRE -416 -656 -416 -944
WIRE -240 -656 -416 -656
WIRE 16 -656 16 -944
WIRE 192 -656 16 -656
WIRE 448 -656 448 -944
WIRE 624 -656 448 -656
WIRE -1104 -576 -1104 -656
WIRE -1040 -576 -1040 -656
WIRE -608 -576 -608 -656
WIRE -176 -576 -176 -656
WIRE 256 -576 256 -656
WIRE 688 -576 688 -656
FLAG -1280 -1152 vdd
IOPIN -1280 -1152 In
FLAG -1232 -1104 vss
IOPIN -1232 -1104 In
FLAG 288 -992 A1
IOPIN 288 -992 In
FLAG 224 -992 B1
IOPIN 224 -992 In
FLAG 720 -992 A0
IOPIN 720 -992 In
FLAG 656 -992 B0
IOPIN 656 -992 In
FLAG -144 -992 A2
IOPIN -144 -992 In
FLAG -208 -992 B2
IOPIN -208 -992 In
FLAG -576 -992 A3
IOPIN -576 -992 In
FLAG -640 -992 B3
IOPIN -640 -992 In
FLAG -1008 -992 A4
IOPIN -1008 -992 In
FLAG -1072 -992 B4
IOPIN -1072 -992 In
FLAG 688 -576 S0
IOPIN 688 -576 Out
FLAG 256 -576 S1
IOPIN 256 -576 Out
FLAG -176 -576 S2
IOPIN -176 -576 Out
FLAG -608 -576 S3
IOPIN -608 -576 Out
FLAG -1040 -576 S4
IOPIN -1040 -576 Out
FLAG -1104 -576 S5
IOPIN -1104 -576 Out
FLAG 592 -992 C
IOPIN 592 -992 In
SYMBOL full_adder 128 -784 R90
SYMATTR InstName X1
SYMBOL full_adder -304 -784 R90
SYMATTR InstName X2
SYMBOL full_adder -736 -784 R90
SYMATTR InstName X3
SYMBOL full_adder 560 -784 R90
SYMATTR InstName X4
SYMBOL full_adder -1168 -784 R90
SYMATTR InstName X5
