Version 4
SHEET 1 1208 736
WIRE 16 -944 -272 -944
WIRE 448 -944 160 -944
WIRE -272 -912 -272 -944
WIRE -208 -912 -208 -992
WIRE -144 -912 -144 -992
WIRE 160 -912 160 -944
WIRE 224 -912 224 -992
WIRE 288 -912 288 -992
WIRE 592 -912 592 -992
WIRE 656 -912 656 -992
WIRE 720 -912 720 -992
WIRE 16 -656 16 -944
WIRE 192 -656 16 -656
WIRE 448 -656 448 -944
WIRE 624 -656 448 -656
WIRE -240 -592 -240 -656
WIRE 752 -592 -240 -592
WIRE 48 -528 -240 -528
WIRE 480 -528 192 -528
WIRE -240 -496 -240 -528
WIRE -176 -496 -176 -656
WIRE -112 -496 -112 -576
WIRE 192 -496 192 -528
WIRE 256 -496 256 -656
WIRE 320 -496 320 -576
WIRE 624 -496 624 -576
WIRE 688 -496 688 -656
WIRE 752 -496 752 -592
WIRE 48 -240 48 -528
WIRE 224 -240 48 -240
WIRE 480 -240 480 -528
WIRE 656 -240 480 -240
WIRE -208 -224 -208 -240
WIRE -144 -192 -144 -240
WIRE -144 -192 -304 -192
WIRE 288 -128 288 -240
WIRE 288 -128 -304 -128
WIRE -448 -112 -448 -160
WIRE -448 -112 -480 -112
WIRE 720 -48 720 -240
WIRE 720 -48 -480 -48
WIRE -624 48 -624 -80
WIRE -480 48 -624 48
WIRE -208 48 -320 48
WIRE 224 48 -208 48
WIRE 656 48 224 48
WIRE 656 112 656 48
WIRE 720 112 720 -48
WIRE -208 128 -208 48
WIRE -144 128 -144 -192
WIRE 224 128 224 48
WIRE 288 128 288 -128
WIRE 688 288 688 256
WIRE -176 304 -176 272
WIRE 256 304 256 272
FLAG 288 -992 A1
IOPIN 288 -992 In
FLAG 224 -992 A4
IOPIN 224 -992 In
FLAG 720 -992 A0
IOPIN 720 -992 In
FLAG 656 -992 A3
IOPIN 656 -992 In
FLAG -208 -992 A5
IOPIN -208 -992 In
FLAG 320 -576 0
FLAG -112 -576 0
FLAG -64 -784 vdd
IOPIN -64 -784 In
FLAG 368 -784 vdd
IOPIN 368 -784 In
FLAG 800 -784 vdd
IOPIN 800 -784 In
FLAG 832 -368 vdd
IOPIN 832 -368 In
FLAG 400 -368 vdd
IOPIN 400 -368 In
FLAG -32 -368 vdd
IOPIN -32 -368 In
FLAG -352 -784 vss
IOPIN -352 -784 In
FLAG 80 -784 vss
IOPIN 80 -784 In
FLAG 512 -784 vss
IOPIN 512 -784 In
FLAG 544 -368 vss
IOPIN 544 -368 In
FLAG 112 -368 vss
IOPIN 112 -368 In
FLAG -320 -368 vss
IOPIN -320 -368 In
FLAG 592 -992 0
FLAG -144 -992 A2
IOPIN -144 -992 In
FLAG 624 -576 0
FLAG -560 0 vss
IOPIN -560 0 In
FLAG -400 112 vss
IOPIN -400 112 In
FLAG -384 -80 vss
IOPIN -384 -80 In
FLAG -256 208 vss
IOPIN -256 208 In
FLAG 176 208 vss
IOPIN 176 208 In
FLAG 608 192 vss
IOPIN 608 192 In
FLAG -560 -160 vdd
IOPIN -560 -160 In
FLAG -384 -240 vdd
IOPIN -384 -240 In
FLAG -96 208 vdd
IOPIN -96 208 In
FLAG 336 208 vdd
IOPIN 336 208 In
FLAG 768 192 vdd
IOPIN 768 192 In
FLAG -176 304 S2
IOPIN -176 304 Out
FLAG 256 304 S1
IOPIN 256 304 Out
FLAG 688 288 S0
IOPIN 688 288 Out
FLAG -400 -16 vdd
IOPIN -400 -16 In
SYMBOL full_adder 128 -784 R90
SYMATTR InstName X1
SYMBOL full_adder -304 -784 R90
SYMATTR InstName X2
SYMBOL full_adder 560 -784 R90
SYMATTR InstName X4
SYMBOL full_adder 160 -368 R90
SYMATTR InstName X3
SYMBOL full_adder -272 -368 R90
SYMATTR InstName X5
SYMBOL full_adder 592 -368 R90
SYMATTR InstName X6
SYMBOL and -384 -160 M0
SYMATTR InstName X7
SYMBOL and -560 -80 M0
SYMATTR InstName X8
SYMBOL and 688 192 R90
SYMATTR InstName X9
SYMBOL and 256 208 R90
SYMATTR InstName X10
SYMBOL and -176 208 R90
SYMATTR InstName X11
SYMBOL not -400 48 R0
SYMATTR InstName X12
