Version 4
SHEET 1 968 680
WIRE 0 -272 -784 -272
WIRE -224 -128 -592 -128
WIRE 352 -96 208 -96
WIRE 576 -96 352 -96
WIRE -224 -64 -512 -64
WIRE 352 -48 208 -48
WIRE 512 -48 352 -48
WIRE -224 0 -416 0
WIRE 352 0 208 0
WIRE 432 0 352 0
WIRE -784 64 -784 -272
WIRE -224 64 -320 64
WIRE -208 64 -224 64
WIRE -592 112 -592 -128
WIRE -512 112 -512 -64
WIRE -416 112 -416 0
WIRE -320 112 -320 64
WIRE 432 208 432 0
WIRE 512 208 512 -48
WIRE 576 208 576 -96
WIRE -784 304 -784 144
WIRE -592 304 -592 192
WIRE -592 304 -784 304
WIRE -512 304 -512 192
WIRE -512 304 -592 304
WIRE -416 304 -416 192
WIRE -416 304 -512 304
WIRE -320 304 -320 192
WIRE -320 304 -416 304
WIRE 0 304 0 224
WIRE 0 304 -320 304
WIRE 432 304 432 272
WIRE 432 304 0 304
WIRE 512 304 512 272
WIRE 512 304 432 304
WIRE 576 304 576 272
WIRE 576 304 512 304
WIRE 0 320 0 304
FLAG 0 320 0
FLAG 352 -96 k0
FLAG 352 -48 k1
FLAG 352 0 k2
SYMBOL voltage -784 48 R0
WINDOW 123 0 0 Left 0
WINDOW 39 0 0 Left 0
SYMATTR InstName V1
SYMATTR Value 5
SYMBOL voltage -416 96 R0
WINDOW 123 0 0 Left 0
WINDOW 39 0 0 Left 0
SYMATTR InstName V2
SYMATTR Value 5
SYMBOL voltage -320 96 R0
WINDOW 123 0 0 Left 0
WINDOW 39 0 0 Left 0
SYMATTR InstName V3
SYMATTR Value 0
SYMBOL voltage -512 96 R0
WINDOW 123 0 0 Left 0
WINDOW 39 0 0 Left 0
SYMATTR InstName V6
SYMATTR Value 5
SYMBOL voltage -592 96 R0
WINDOW 123 0 0 Left 0
WINDOW 39 0 0 Left 0
SYMATTR InstName V7
SYMATTR Value 0
SYMBOL cap 416 208 R0
SYMATTR InstName C2
SYMATTR Value 1f
SYMBOL cap 496 208 R0
SYMATTR InstName C3
SYMATTR Value 1f
SYMBOL cap 560 208 R0
SYMATTR InstName C4
SYMATTR Value 1f
SYMBOL month_key 0 -16 R0
SYMATTR InstName X1
TEXT -544 344 Left 2 !.tran 1m
