Version 4
SHEET 1 968 680
WIRE 192 -112 -544 -112
WIRE 192 0 192 -112
WIRE 112 32 -368 32
WIRE 112 64 64 64
WIRE 64 80 64 64
WIRE 64 80 -256 80
WIRE 320 80 288 80
WIRE 112 96 64 96
WIRE 112 128 96 128
WIRE -544 144 -544 -112
WIRE 64 144 64 96
WIRE 64 144 -128 144
WIRE 320 176 320 80
WIRE 352 176 320 176
WIRE -368 192 -368 32
WIRE -256 192 -256 80
WIRE -128 192 -128 144
WIRE 96 192 96 128
WIRE 96 192 -32 192
WIRE 208 208 208 160
WIRE 208 208 192 208
WIRE 352 208 352 176
WIRE -544 304 -544 224
WIRE -368 304 -368 272
WIRE -368 304 -544 304
WIRE -256 304 -256 272
WIRE -256 304 -368 304
WIRE -128 304 -128 272
WIRE -128 304 -256 304
WIRE -32 304 -32 272
WIRE -32 304 -128 304
WIRE 80 304 -32 304
WIRE 192 304 192 208
WIRE 192 304 80 304
WIRE 352 304 352 272
WIRE 352 304 192 304
WIRE 80 352 80 304
FLAG 80 352 0
SYMBOL voltage -544 128 R0
WINDOW 123 0 0 Left 0
WINDOW 39 0 0 Left 0
SYMATTR InstName V1
SYMATTR Value 5
SYMBOL cap 336 208 R0
SYMATTR InstName C1
SYMATTR Value 1f
SYMBOL voltage -32 176 R0
WINDOW 123 0 0 Left 0
WINDOW 39 0 0 Left 0
SYMATTR InstName V5
SYMATTR Value 0
SYMBOL voltage -128 176 R0
WINDOW 123 0 0 Left 0
WINDOW 39 0 0 Left 0
SYMATTR InstName V6
SYMATTR Value 5
SYMBOL voltage -256 176 R0
WINDOW 123 0 0 Left 0
WINDOW 39 0 0 Left 0
SYMATTR InstName V7
SYMATTR Value 5
SYMBOL voltage -368 176 R0
WINDOW 123 0 0 Left 0
WINDOW 39 0 0 Left 0
SYMATTR InstName V8
SYMATTR Value 5
SYMBOL m_key 176 80 R0
SYMATTR InstName X1
TEXT -544 344 Left 2 !.tran 1m
