Version 4
SHEET 1 968 680
WIRE 208 -640 -912 -640
WIRE -16 -544 -752 -544
WIRE -16 -512 -672 -512
WIRE -16 -480 -592 -480
WIRE 800 -480 416 -480
WIRE -16 -448 -512 -448
WIRE 736 -448 416 -448
WIRE 656 -416 416 -416
WIRE -16 -368 -416 -368
WIRE -16 -336 -320 -336
WIRE 592 -320 416 -320
WIRE -16 -304 -192 -304
WIRE -16 -272 -96 -272
WIRE -912 -64 -912 -640
WIRE -752 -64 -752 -544
WIRE -672 -64 -672 -512
WIRE -592 -64 -592 -480
WIRE -512 -64 -512 -448
WIRE -416 -64 -416 -368
WIRE -320 -64 -320 -336
WIRE -192 -64 -192 -304
WIRE -96 -64 -96 -272
WIRE -16 -64 -16 -240
WIRE -752 -16 -752 -64
WIRE -672 -16 -672 -64
WIRE -592 -16 -592 -64
WIRE -512 -16 -512 -64
WIRE 592 0 592 -320
WIRE 656 32 656 -416
WIRE 736 32 736 -448
WIRE 800 32 800 -480
WIRE -416 48 -416 -64
WIRE -320 48 -320 -64
WIRE -192 48 -192 -64
WIRE -96 48 -96 -64
WIRE -16 48 -16 -64
WIRE 592 80 592 0
WIRE 656 80 656 32
WIRE 736 80 736 32
WIRE 800 80 800 32
WIRE -912 176 -912 16
WIRE -752 176 -752 64
WIRE -752 176 -912 176
WIRE -672 176 -672 64
WIRE -672 176 -752 176
WIRE -592 176 -592 64
WIRE -592 176 -672 176
WIRE -512 176 -512 64
WIRE -512 176 -592 176
WIRE -416 176 -416 128
WIRE -416 176 -512 176
WIRE -320 176 -320 128
WIRE -320 176 -416 176
WIRE -192 176 -192 128
WIRE -192 176 -320 176
WIRE -96 176 -96 128
WIRE -96 176 -192 176
WIRE -16 176 -16 128
WIRE -16 176 -96 176
WIRE 160 176 -16 176
WIRE 208 176 208 -144
WIRE 208 176 160 176
WIRE 592 176 592 144
WIRE 592 176 208 176
WIRE 656 176 656 144
WIRE 656 176 592 176
WIRE 736 176 736 144
WIRE 736 176 656 176
WIRE 800 176 800 144
WIRE 800 176 736 176
WIRE 160 256 160 176
FLAG 160 256 0
FLAG -752 -64 m0
FLAG -672 -64 m1
FLAG -592 -64 m2
FLAG -512 -64 m3
FLAG -416 -64 d0
FLAG -320 -64 d1
FLAG -192 -64 d2
FLAG -96 -64 d3
FLAG -16 -64 d4
FLAG 592 0 e
FLAG 656 32 w2
FLAG 736 32 w1
FLAG 800 32 w0
SYMBOL voltage -912 -80 R0
WINDOW 123 0 0 Left 0
WINDOW 39 0 0 Left 0
SYMATTR InstName V1
SYMATTR Value 5
SYMBOL cap 576 80 R0
SYMATTR InstName C1
SYMATTR Value 1f
SYMBOL cap 640 80 R0
SYMATTR InstName C2
SYMATTR Value 1f
SYMBOL cap 720 80 R0
SYMATTR InstName C3
SYMATTR Value 1f
SYMBOL cap 784 80 R0
SYMATTR InstName C4
SYMATTR Value 1f
SYMBOL Date_Converter 208 -384 R0
SYMATTR InstName X1
SYMBOL voltage -752 -32 R0
WINDOW 123 0 0 Left 0
WINDOW 39 0 0 Left 0
SYMATTR InstName V10
SYMATTR Value 0
SYMBOL voltage -672 -32 R0
WINDOW 123 0 0 Left 0
WINDOW 39 0 0 Left 0
SYMATTR InstName V2
SYMATTR Value 0
SYMBOL voltage -592 -32 R0
WINDOW 123 0 0 Left 0
WINDOW 39 0 0 Left 0
SYMATTR InstName V3
SYMATTR Value 5
SYMBOL voltage -512 -32 R0
WINDOW 123 0 0 Left 0
WINDOW 39 0 0 Left 0
SYMATTR InstName V6
SYMATTR Value 5
SYMBOL voltage -96 32 R0
WINDOW 123 0 0 Left 0
WINDOW 39 0 0 Left 0
SYMATTR InstName V5
SYMATTR Value 0
SYMBOL voltage -16 32 R0
WINDOW 123 0 0 Left 0
WINDOW 39 0 0 Left 0
SYMATTR InstName V8
SYMATTR Value 5
SYMBOL voltage -192 32 R0
WINDOW 123 0 0 Left 0
WINDOW 39 0 0 Left 0
SYMATTR InstName V4
SYMATTR Value 5
SYMBOL voltage -320 32 R0
WINDOW 123 0 0 Left 0
WINDOW 39 0 0 Left 0
SYMATTR InstName V7
SYMATTR Value 5
SYMBOL voltage -416 32 R0
WINDOW 123 0 0 Left 0
WINDOW 39 0 0 Left 0
SYMATTR InstName V9
SYMATTR Value 5
TEXT -544 216 Left 2 !.tran 1m
